Circuit: * Z:\home\tyapo\checkout\pic-ir-rx\LTspice\Draft1.asc

I1: both pins shorted together -- ignoring.

Date: Mon Jun 15 20:37:45 2020
Total elapsed time: 0.119 seconds.

tnom = 27
temp = 27
method = trap
totiter = 0
traniter = 0
tranpoints = 0
accept = 0
rejected = 0
matrix size = 14
fillins = 16
solver = Normal

