Circuit: * Z:\home\tyapo\checkout\pic-ir-rx\LTspice\p-mosfet-current-source.asc

Direct Newton iteration failed to find .op point.  (Use ".option noopiter" to skip.)
Starting Gmin stepping
Gmin = 10
Gmin = 1.07374
Gmin = 0.115292
Gmin = 0.0123794
Gmin = 0.00132923
Gmin = 0.000142725
Gmin = 1.5325e-005
Gmin = 1.6455e-006
vernier = 0.5
vernier = 0.25
vernier = 0.125
vernier = 0.0625
Gmin = 6.73999e-007
vernier = 0.03125
vernier = 0.015625
vernier = 0.0078125
vernier = 0.0104167
Gmin = 6.63992e-007
vernier = 0.0138889
Gmin = 6.43595e-007
vernier = 0.0185185
vernier = 0.0246913
Gmin = 6.10783e-007
vernier = 0.0123457
vernier = 0.00617283
Gmin = 5.98675e-007
vernier = 0.00823044
vernier = 0.00411522
vernier = 0.00205761
Gmin = 5.93161e-007
vernier = 0.00274348
vernier = 0.00365797
Gmin = 5.89277e-007
vernier = 0.0048773
vernier = 0.00243865
Gmin = 5.85518e-007
vernier = 0.00325153
vernier = 0.00433537
vernier = 0.00216769
Gmin = 5.81961e-007
vernier = 0.00108384
vernier = 0.000541921
vernier = 0.000406441
Gmin = 0
Gmin stepping failed

Starting source stepping with srcstepmethod=0
Source Step = 3.0303%
vernier = 0.25
Source Step = 1.52699%
Source Step = 1.55658%
Source Step = 1.58617%
Source Step = 1.61577%
Source Step = 1.64536%
Source Step = 1.67495%
vernier = 0.00146484
Source Step = 1.71786%
Source Step = 1.76225%
Source Step = 1.80664%
Source Step = 1.85103%
Source Step = 1.89542%
vernier = 0.00219727
Source Step = 1.95756%
Source Step = 2.02415%
Source Step = 2.09073%
Source Step = 2.15732%
Source Step = 2.2239%
vernier = 0.0032959
Source Step = 2.31379%
Source Step = 2.41366%
Source Step = 2.51354%
Source Step = 2.61341%
Source Step = 2.71329%
vernier = 0.00494385
Source Step = 2.84313%
Source Step = 2.99294%
Source Step = 3.14276%
Source Step = 3.29257%
Source Step = 3.44238%
vernier = 0.00741577
Source Step = 3.62965%
Source Step = 3.85437%
Source Step = 4.07909%
Source Step = 4.30381%
Source Step = 4.52853%
vernier = 0.0111237
Source Step = 4.7982%
Source Step = 5.13528%
Source Step = 5.47236%
Source Step = 5.80944%
Source Step = 6.14652%
vernier = 0.0166855
Source Step = 6.53416%
Source Step = 7.03978%
Source Step = 7.5454%
Source Step = 8.05102%
Source Step = 8.55664%
vernier = 0.0250282
Source Step = 9.11283%
Source Step = 9.87126%
Source Step = 10.6297%
Source Step = 11.3881%
Source Step = 12.1466%
vernier = 0.0375423
Source Step = 12.9429%
Source Step = 14.0806%
Source Step = 15.2182%
Source Step = 16.3558%
Source Step = 17.4935%
Source Step = 18.6311%
vernier = 0.0563135
Source Step = 20.3376%
Source Step = 22.0441%
Source Step = 23.7505%
Source Step = 25.457%
Source Step = 27.1635%
vernier = 0.0844703
Source Step = 29.6379%
Source Step = 32.1976%
Source Step = 34.7573%
Source Step = 37.317%
Source Step = 39.8767%
vernier = 0.126705
Source Step = 43.4603%
Source Step = 47.2998%
Source Step = 51.1394%
Source Step = 54.979%
Source Step = 58.8185%
vernier = 0.190058
Source Step = 64.0019%
Source Step = 69.7612%
Source Step = 75.5206%
Source Step = 81.2799%
Source Step = 87.0393%
vernier = 0.285087
Source Step = 94.5264%
vernier = 0.0712718
Source Step = 93.6861%
Source Step = 93.7199%
Source Step = 93.7536%
Source Step = 93.7874%
Source Step = 93.8211%
Source Step = 93.8548%
vernier = 0.00167043
Source Step = 93.892%
Source Step = 93.9426%
Source Step = 93.9932%
Source Step = 94.0438%
Source Step = 94.0944%
vernier = 0.00250565
Source Step = 94.1476%
Source Step = 94.2235%
Source Step = 94.2995%
Source Step = 94.3754%
Source Step = 94.4513%
Source Step = 94.5272%
vernier = 0.00375847
Source Step = 94.6411%
Source Step = 94.755%
Source Step = 94.8689%
Source Step = 94.9828%
Source Step = 95.0967%
vernier = 0.00563771
Source Step = 95.2619%
Source Step = 95.4327%
Source Step = 95.6035%
Source Step = 95.7744%
Source Step = 95.9452%
vernier = 0.00845657
Source Step = 96.1844%
Source Step = 96.4406%
Source Step = 96.6969%
Source Step = 96.9532%
Source Step = 97.2094%
vernier = 0.0126848
Source Step = 97.5554%
Source Step = 97.9398%
Source Step = 98.3242%
Source Step = 98.7085%
Source Step = 99.0929%
vernier = 0.0190273
Source Step = 99.5926%
Source stepping succeeded in finding the operating point.

Direct Newton iteration failed to find .op point.  (Use ".option noopiter" to skip.)
Starting Gmin stepping
Gmin = 10
Gmin = 1.07374
Gmin = 0.115292
Gmin = 0.0123794
Gmin = 0.00132923
Gmin = 0.000142725
Gmin = 1.5325e-005
Gmin = 1.6455e-006
Gmin = 1.76685e-007
Gmin = 1.89714e-008
Gmin = 2.03704e-009
Gmin = 2.18725e-010
Gmin = 2.34854e-011
Gmin = 2.52173e-012
Gmin = 2.70769e-013
Gmin = 0
Gmin stepping succeeded in finding the operating point.


Date: Fri Jun 12 12:34:04 2020
Total elapsed time: 0.348 seconds.

tnom = 27
temp = 27
method = trap
totiter = 12121
traniter = 0
tranpoints = 0
accept = 0
rejected = 0
matrix size = 22
fillins = 20
solver = Normal
Matrix Compiler1: 1.92 KB object code size  0.4/0.3/[0.1]
Matrix Compiler2: 2.15 KB object code size  0.2/0.4/[0.2]

