Circuit: * Z:\home\tyapo\checkout\pic-ir-rx\LTspice\sma-bnc-feedthrough-term.asc

I1: both pins shorted together -- ignoring.

Date: Mon Jun 15 23:20:20 2020
Total elapsed time: 0.065 seconds.

tnom = 27
temp = 27
method = trap
totiter = 0
traniter = 0
tranpoints = 0
accept = 0
rejected = 0
matrix size = 19
fillins = 21
solver = Normal

